GPrivate='C:\CAA_Code\Select\.\CAASystem.edu\PrivateGenerated\win_b64'
NAME='C:\CAA_Code\Select\.\CAASystem.edu\CAASysTypeLib.m\Objects\win_b64\.mkdata.mkb'
IPrivate='C:\CAA_Code\Select\.\CAASystem.edu\PrivateInterfaces'
MOD_ObjectsPath='C:\CAA_Code\Select\.\CAASystem.edu\CAASysTypeLib.m\Objects\win_b64'
FWTYPE='edu'
MKMK_DEBUG=''
CONTNAME='CAASysTypeLib'
IPublic='C:\CAA_Code\Select\.\CAASystem.edu\PublicInterfaces'
FW_AllPreq='BSFBuildtimeData,21DD1140;InfInterfaces,21EE2151;Mathematics,21EE2151;System,21ED2151;AutomationInterfaces,20DD2151;CATJavaBridge,20DD2151;LCCommon,20CC2151;Mainwin,20DD2151;SpecialAPI,20DD2151;'
GPublic='C:\CAA_Code\Select\.\CAASystem.edu\PublicGenerated\win_b64'
MKMK_ZIPJAVASOURCE=''
GProtected='C:\CAA_Code\Select\.\CAASystem.edu\ProtectedGenerated\win_b64'
IProtected='C:\CAA_Code\Select\.\CAASystem.edu\ProtectedInterfaces'
STEPS_TO_CLEAN=''
BUILD='YES'
M_InfTypeLib='mkTypeLib "C:\Program Files\Dassault Systemes\B26\.\InfInterfaces\InfTypeLib.m" InfTypeLib InfTypeLib - - -'
BUILD_PRIORITY_MOD='LINK_WITH'
RTViewDataListPath='C:\CAA_Code\Select\.\CAASystem.edu\various\win_b64\CAASysTypeLib.m\module.data'
BUILT_OBJECT_TYPE='TYPELIB'
FW_INCPATH='"C:\CAA_Code\Select\.\CAASystem.edu\PrivateInterfaces" "C:\CAA_Code\Select\.\CAASystem.edu\PrivateGenerated\win_b64" "C:\CAA_Code\Select\.\CAASystem.edu\ProtectedInterfaces" "C:\CAA_Code\Select\.\CAASystem.edu\ProtectedGenerated\win_b64" "C:\CAA_Code\Select\.\CAASystem.edu\PublicInterfaces" "C:\CAA_Code\Select\.\CAASystem.edu\PublicGenerated\win_b64"'
MOD_Depend='M_InfTypeLib'
MOD_INCPATH='"C:\CAA_Code\Select\.\CAASystem.edu\CAASysTypeLib.m\src" "C:\CAA_Code\Select\.\CAASystem.edu\CAASysTypeLib.m\LocalInterfaces" "C:\CAA_Code\Select\.\CAASystem.edu\CAASysTypeLib.m\LocalGenerated\win_b64"'
MOD_SrcPath='C:\CAA_Code\Select\.\CAASystem.edu\CAASysTypeLib.m\src'
WSENAME_msg='CAASystem.edu\CAASysTypeLib.m'
FWCOMPANYNAME=''
MOD_Container='CAASysTypeLib.m'
FWmkHLpath='C:\CAA_Code\Select\.\CAASystem.edu\IdentityCard\Objects\win_b64\.mkHLpath.mk'
F_CAASystem.edu='mkFramework "C:\CAA_Code\Select\.\CAASystem.edu" CAASystem.edu CAASystem.edu - -'
TARGETS_VALID='typelib clean runtimedata buildtimedata'
M_CAASysTypeLib='mkTypeLib "C:\CAA_Code\Select\.\CAASystem.edu\CAASysTypeLib.m" CAASysTypeLib CAASysTypeLib - - -'
REAL_LINK_WITH='InfTypeLib'
MKMK_DEVSTAGE=''
MKMK_DEBUGEDITANDCONTINUE=''
WSROOT='C:\CAA_Code\Select\.'
FWNAME='CAASystem.edu'
MODPATH='C:\CAA_Code\Select\.\CAASystem.edu\CAASysTypeLib.m'
MODNAME='CAASysTypeLib'
WSEKEY='M_CAASysTypeLib'
MOD_LinkWith='M_InfTypeLib'
MOD_Included='M_CAASysTypeLib'
MKMK_WARNING=''
MKMK_DATA_VERSION='1.0.0'
FWDNAME='CAASystem.edu'
STEPS_TO_BUILD='typelib runtimedata buildtimedata DoxGrammar1st grammar1st'
WSPATH='C:\CAA_Code\Select\.'
FWCOPYRIGHT=''
FWPATH='C:\CAA_Code\Select\.\CAASystem.edu'
TYPELATE='mkTypeLib'
WS_Concat='"C:\CAA_Code\Select\." "C:\Program Files\Dassault Systemes\B26\."'
MKMK_BSCMAKE=''
LINK_WITH='InfTypeLib'
GLocal='C:\CAA_Code\Select\.\CAASystem.edu\CAASysTypeLib.m\LocalGenerated\win_b64'
ILocal='C:\CAA_Code\Select\.\CAASystem.edu\CAASysTypeLib.m\LocalInterfaces'
